Geom Title=Geom 01
Program Version=6.50
Viewing Rectangle= 0 , 1 , 1 , 0 

River Reach=Canal Toca      ,Canal           
Reach XY= 12 
 1.33633093525180.881294964028781.17446043165468 0.6636690647482
1.014388489208630.776978417266190.764388489208630.77338129496403
0.615107913669070.690647482014390.559352517985610.61510791366907
0.338129496402880.611510791366910.115107913669070.69064748201439
-0.04316546762590.73920863309353-0.27877697841720.49460431654676
-0.44784172661870.54676258992806-0.4424460431654 0.5431654676259
Rch Text X Y=0.8916367,0.7967626
Reverse River Text= 0 

Type RM Length L Ch R = 1 ,13      ,,986.6,
BEGIN DESCRIPTION:
K6+589.300
END DESCRIPTION:
Node Last Edited Time=sept/15/2024 22:51:50
#Sta/Elev= 4 
       0 2554.46       2 2550.46       5 2550.46       7 2554.46
#Mann= 3 ,0,0
       0               0       0    .015       0       7               0
Bank Sta=0,7
XS Rating Curve= 0 ,0
XS HTab Starting El and Incr=2550.61,0.19, 20 
XS HTab Horizontal Distribution= 5 , 5 , 5 
Exp/Cntr=0.3,0.1

Type RM Length L Ch R = 1 ,12      ,,201.4,
BEGIN DESCRIPTION:
K5+602.700
END DESCRIPTION:
Node Last Edited Time=sept/16/2024 17:04:37
#Sta/Elev= 4 
       0 2553.47     7.2 2549.47    13.2 2549.47    20.4 2553.47
#Mann= 3 ,0,0
       0               0       0    .015       0    20.4               0
Bank Sta=0,20.4
XS Rating Curve= 0 ,0
XS HTab Starting El and Incr=2549.62,0.2, 20 
XS HTab Horizontal Distribution= 5 , 5 , 5 
Exp/Cntr=0.3,0.1

Type RM Length L Ch R = 1 ,11      ,,243.6,
BEGIN DESCRIPTION:
K5+401.300
END DESCRIPTION:
Node Last Edited Time=sept/15/2024 22:50:25
#Sta/Elev= 4 
       0 2553.52     5.2 2549.52    13.2 2549.52    18.4 2553.52
#Mann= 3 ,0,0
       0               0       0    .013       0    18.4               0
Bank Sta=0,18.4
XS Rating Curve= 0 ,0
XS HTab Starting El and Incr=2549.67,0.19, 20 
XS HTab Horizontal Distribution= 5 , 5 , 5 
Exp/Cntr=0.3,0.1

Type RM Length L Ch R = 1 ,10      ,,289.1,
BEGIN DESCRIPTION:
K5+157.700
END DESCRIPTION:
Node Last Edited Time=sept/15/2024 22:49:49
#Sta/Elev= 4 
       0  2553.3     6.8  2549.3    20.8  2549.3    27.6  2553.3
#Mann= 3 ,0,0
       0               0       0    .015       0    27.6               0
Bank Sta=0,27.6
XS Rating Curve= 0 ,0
XS HTab Starting El and Incr=2549.45,0.19, 20 
XS HTab Horizontal Distribution= 5 , 5 , 5 
Exp/Cntr=0.3,0.1

Type RM Length L Ch R = 1 ,9       ,2.7,2.7,2.7
BEGIN DESCRIPTION:
K4+868.600
END DESCRIPTION:
Node Last Edited Time=sept/15/2024 22:49:16
#Sta/Elev= 4 
       0 2553.15     4.8 2549.15    19.8 2549.15    24.6 2553.15
#Mann= 3 ,0,0
       0               0       0    .015       0    24.6               0
Bank Sta=0,24.6
XS Rating Curve= 0 ,0
XS HTab Starting El and Incr=2549.3,0.19, 20 
XS HTab Horizontal Distribution= 5 , 5 , 5 
Exp/Cntr=0.3,0.1

Type RM Length L Ch R = 1 ,8.9709  ,90,90,90
Node Last Edited Time=sept/16/2024 17:43:38
#Sta/Elev= 4 
       02553.148     4.82549.148    19.82549.148    24.62553.148
#Mann= 2 ,0,0
       0    .015       0    24.6    .015       0
Bank Sta=0,24.6
XS Rating Curve= 0 ,0
XS HTab Starting El and Incr=2549.3,0.19, 20 
XS HTab Horizontal Distribution= 5 , 5 , 5 
Exp/Cntr=0.3,0.1

Type RM Length L Ch R = 1 ,8       ,47,47,47
BEGIN DESCRIPTION:
K4+775.900
END DESCRIPTION:
Node Last Edited Time=sept/15/2024 22:48:45
#Sta/Elev= 4 
       0 2553.08     4.8 2549.08    19.8 2549.08    24.6 2553.08
#Mann= 3 ,0,0
       0               0       0    .015       0    24.6               0
Bank Sta=0,24.6
XS Rating Curve= 0 ,0
XS HTab Starting El and Incr=2549.23,0.19, 20 
XS HTab Horizontal Distribution= 5 , 5 , 5 
Exp/Cntr=0.3,0.1

Type RM Length L Ch R = 1 ,7.9326  ,50,50,50
Node Last Edited Time=sept/16/2024 17:42:17
#Sta/Elev= 4 
       02553.052   4.4762549.052  18.8692549.052  23.3462553.052
#Mann= 2 ,0,0
       0    .015       0  23.346    .015       0
Bank Sta=0,23.346
XS Rating Curve= 0 ,0
XS HTab Starting El and Incr=2549.2,0.19, 20 
XS HTab Horizontal Distribution= 5 , 5 , 5 
Exp/Cntr=0.3,0.1

Type RM Length L Ch R = 1 ,7.8609* ,50,50,50
Node Last Edited Time=sept/16/2024 17:42:47
#Sta/Elev= 4 
       02553.023   4.1322549.023  17.8792549.023  22.0122553.023
#Mann= 2 ,0,0
       0    .015       0  22.012    .015       0
Bank Sta=0,22.012
XS Rating Curve= 0 ,0
XS HTab Starting El and Incr=2549.17,0.19, 20 
XS HTab Horizontal Distribution= 5 , 5 , 5 
Exp/Cntr=0.3,0.1

Type RM Length L Ch R = 1 ,7.7891* ,50,50,50
Node Last Edited Time=sept/16/2024 17:42:47
#Sta/Elev= 4 
       02552.993   3.7872548.993  16.8892548.993  20.6772552.993
#Mann= 2 ,0,0
       0    .015       0  20.677    .015       0
Bank Sta=0,20.677
XS Rating Curve= 0 ,0
XS HTab Starting El and Incr=2549.14,0.19, 20 
XS HTab Horizontal Distribution= 5 , 5 , 5 
Exp/Cntr=0.3,0.1

Type RM Length L Ch R = 1 ,7.7174* ,50,50,50
Node Last Edited Time=sept/16/2024 17:42:47
#Sta/Elev= 4 
       02552.964   3.4432548.964  15.8992548.964  19.3432552.964
#Mann= 2 ,0,0
       0    .015       0  19.343    .015       0
Bank Sta=0,19.343
XS Rating Curve= 0 ,0
XS HTab Starting El and Incr=2549.11,0.19, 20 
XS HTab Horizontal Distribution= 5 , 5 , 5 
Exp/Cntr=0.3,0.1

Type RM Length L Ch R = 1 ,7.6456* ,50,50,50
Node Last Edited Time=sept/16/2024 17:42:47
#Sta/Elev= 4 
       02552.934   3.0992548.934  14.9092548.934  18.0092552.934
#Mann= 2 ,0,0
       0    .014       0  18.009    .014       0
Bank Sta=0,18.009
XS Rating Curve= 0 ,0
XS HTab Starting El and Incr=2549.08,0.19, 20 
XS HTab Horizontal Distribution= 5 , 5 , 5 
Exp/Cntr=0.3,0.1

Type RM Length L Ch R = 1 ,7.5739* ,50,50,50
Node Last Edited Time=sept/16/2024 17:42:47
#Sta/Elev= 4 
       02552.905   2.7542548.905  13.9192548.905  16.6742552.905
#Mann= 2 ,0,0
       0    .014       0  16.674    .014       0
Bank Sta=0,16.674
XS Rating Curve= 0 ,0
XS HTab Starting El and Incr=2549.05,0.19, 20 
XS HTab Horizontal Distribution= 5 , 5 , 5 
Exp/Cntr=0.3,0.1

Type RM Length L Ch R = 1 ,7.5022* ,50,50,50
Node Last Edited Time=sept/16/2024 17:42:47
#Sta/Elev= 4 
       02552.876    2.412548.876  12.9292548.876   15.342552.876
#Mann= 2 ,0,0
       0    .014       0   15.34    .014       0
Bank Sta=0,15.34
XS Rating Curve= 0 ,0
XS HTab Starting El and Incr=2549.02,0.19, 20 
XS HTab Horizontal Distribution= 5 , 5 , 5 
Exp/Cntr=0.3,0.1

Type RM Length L Ch R = 1 ,7.4304* ,50,50,50
Node Last Edited Time=sept/16/2024 17:42:47
#Sta/Elev= 4 
       02552.846   2.0662548.846   11.942548.846  14.0062552.846
#Mann= 2 ,0,0
       0    .014       0  14.006    .014       0
Bank Sta=0,14.006
XS Rating Curve= 0 ,0
XS HTab Starting El and Incr=2549,0.19, 20 
XS HTab Horizontal Distribution= 5 , 5 , 5 
Exp/Cntr=0.3,0.1

Type RM Length L Ch R = 1 ,7.3587* ,50,50,50
Node Last Edited Time=sept/16/2024 17:42:47
#Sta/Elev= 4 
       02552.817   1.7222548.817   10.952548.817  12.6722552.817
#Mann= 2 ,0,0
       0    .014       0  12.672    .014       0
Bank Sta=0,12.672
XS Rating Curve= 0 ,0
XS HTab Starting El and Incr=2548.97,0.19, 20 
XS HTab Horizontal Distribution= 5 , 5 , 5 
Exp/Cntr=0.3,0.1

Type RM Length L Ch R = 1 ,7.2870* ,50,50,50
Node Last Edited Time=sept/16/2024 17:42:47
#Sta/Elev= 4 
       02552.788   1.3772548.788    9.962548.788  11.3372552.788
#Mann= 2 ,0,0
       0    .014       0  11.337    .014       0
Bank Sta=0,11.337
XS Rating Curve= 0 ,0
XS HTab Starting El and Incr=2548.94,0.19, 20 
XS HTab Horizontal Distribution= 5 , 5 , 5 
Exp/Cntr=0.3,0.1

Type RM Length L Ch R = 1 ,7.2152* ,50,50,50
Node Last Edited Time=sept/16/2024 17:42:47
#Sta/Elev= 4 
       02552.758   1.0332548.758    8.972548.758  10.0032552.758
#Mann= 2 ,0,0
       0    .013       0  10.003    .013       0
Bank Sta=0,10.003
XS Rating Curve= 0 ,0
XS HTab Starting El and Incr=2548.91,0.19, 20 
XS HTab Horizontal Distribution= 5 , 5 , 5 
Exp/Cntr=0.3,0.1

Type RM Length L Ch R = 1 ,7.1435* ,50,50,50
Node Last Edited Time=sept/16/2024 17:42:47
#Sta/Elev= 4 
       02552.729    .6892548.729    7.982548.729   8.6692552.729
#Mann= 2 ,0,0
       0    .013       0   8.669    .013       0
Bank Sta=0,8.669
XS Rating Curve= 0 ,0
XS HTab Starting El and Incr=2548.88,0.19, 20 
XS HTab Horizontal Distribution= 5 , 5 , 5 
Exp/Cntr=0.3,0.1

Type RM Length L Ch R = 1 ,7.0717* ,50,50,50
Node Last Edited Time=sept/16/2024 17:42:47
#Sta/Elev= 4 
       02552.699    .3442548.699    6.992548.699   7.3342552.699
#Mann= 2 ,0,0
       0    .013       0   7.334    .013       0
Bank Sta=0,7.334
XS Rating Curve= 0 ,0
XS HTab Starting El and Incr=2548.85,0.19, 20 
XS HTab Horizontal Distribution= 5 , 5 , 5 
Exp/Cntr=0.3,0.1

Type RM Length L Ch R = 1 ,7       ,8.4,8.4,8.4
BEGIN DESCRIPTION:
K4+078.900
END DESCRIPTION:
Node Last Edited Time=sept/15/2024 22:48:17
#Sta/Elev= 4 
       0 2552.67       0 2548.67       6 2548.67       6 2552.67
#Mann= 3 ,0,0
       0               0       0    .013       0       6               0
Bank Sta=0,6
XS Rating Curve= 0 ,0
XS HTab Starting El and Incr=2548.82,0.19, 20 
XS HTab Horizontal Distribution= 5 , 5 , 5 
Exp/Cntr=0.3,0.1

Type RM Length L Ch R = 1 ,6.9902  ,50,50,50
Node Last Edited Time=sept/16/2024 17:39:43
#Sta/Elev= 4 
       02552.656     .072548.656    6.092548.656    6.162552.656
#Mann= 2 ,0,0
       0    .013       0    6.16    .013       0
Bank Sta=0,6.16
XS Rating Curve= 0 ,0
XS HTab Starting El and Incr=2548.81,0.19, 20 
XS HTab Horizontal Distribution= 5 , 5 , 5 
Exp/Cntr=0.3,0.1

Type RM Length L Ch R = 1 ,6.9320* ,50,50,50
Node Last Edited Time=sept/16/2024 17:41:27
#Sta/Elev= 4 
       02552.573    .4892548.573   6.6262548.573   7.1152552.573
#Mann= 2 ,0,0
       0    .013       0   7.115    .013       0
Bank Sta=0,7.115
XS Rating Curve= 0 ,0
XS HTab Starting El and Incr=2548.73,0.19, 20 
XS HTab Horizontal Distribution= 5 , 5 , 5 
Exp/Cntr=0.3,0.1

Type RM Length L Ch R = 1 ,6.8737* ,50,50,50
Node Last Edited Time=sept/16/2024 17:41:27
#Sta/Elev= 4 
       0 2552.49    .909 2548.49   7.162 2548.49   8.071 2552.49
#Mann= 2 ,0,0
       0    .013       0   8.071    .013       0
Bank Sta=0,8.071
XS Rating Curve= 0 ,0
XS HTab Starting El and Incr=2548.64,0.19, 20 
XS HTab Horizontal Distribution= 5 , 5 , 5 
Exp/Cntr=0.3,0.1

Type RM Length L Ch R = 1 ,6.8155* ,50,50,50
Node Last Edited Time=sept/16/2024 17:41:27
#Sta/Elev= 4 
       02552.406   1.3282548.406   7.6982548.406   9.0262552.406
#Mann= 2 ,0,0
       0    .013       0   9.026    .013       0
Bank Sta=0,9.026
XS Rating Curve= 0 ,0
XS HTab Starting El and Incr=2548.56,0.19, 20 
XS HTab Horizontal Distribution= 5 , 5 , 5 
Exp/Cntr=0.3,0.1

Type RM Length L Ch R = 1 ,6.7572* ,50,50,50
Node Last Edited Time=sept/16/2024 17:41:27
#Sta/Elev= 4 
       02552.323   1.7482548.323   8.2342548.323   9.9812552.323
#Mann= 2 ,0,0
       0    .013       0   9.981    .013       0
Bank Sta=0,9.981
XS Rating Curve= 0 ,0
XS HTab Starting El and Incr=2548.48,0.19, 20 
XS HTab Horizontal Distribution= 5 , 5 , 5 
Exp/Cntr=0.3,0.1

Type RM Length L Ch R = 1 ,6.6990* ,50,50,50
Node Last Edited Time=sept/16/2024 17:41:27
#Sta/Elev= 4 
       0 2552.24   2.167 2548.24   8.769 2548.24  10.936 2552.24
#Mann= 2 ,0,0
       0    .014       0  10.936    .014       0
Bank Sta=0,10.936
XS Rating Curve= 0 ,0
XS HTab Starting El and Incr=2548.39,0.19, 20 
XS HTab Horizontal Distribution= 5 , 5 , 5 
Exp/Cntr=0.3,0.1

Type RM Length L Ch R = 1 ,6.6407* ,50,50,50
Node Last Edited Time=sept/16/2024 17:41:27
#Sta/Elev= 4 
       02552.156   2.5862548.156   9.3052548.156  11.8922552.156
#Mann= 2 ,0,0
       0    .014       0  11.892    .014       0
Bank Sta=0,11.892
XS Rating Curve= 0 ,0
XS HTab Starting El and Incr=2548.31,0.19, 20 
XS HTab Horizontal Distribution= 5 , 5 , 5 
Exp/Cntr=0.3,0.1

Type RM Length L Ch R = 1 ,6.5825* ,50,50,50
Node Last Edited Time=sept/16/2024 17:41:27
#Sta/Elev= 4 
       02552.073   3.0062548.073   9.8412548.073  12.8472552.073
#Mann= 2 ,0,0
       0    .014       0  12.847    .014       0
Bank Sta=0,12.847
XS Rating Curve= 0 ,0
XS HTab Starting El and Incr=2548.23,0.19, 20 
XS HTab Horizontal Distribution= 5 , 5 , 5 
Exp/Cntr=0.3,0.1

Type RM Length L Ch R = 1 ,6.5242* ,50,50,50
Node Last Edited Time=sept/16/2024 17:41:27
#Sta/Elev= 4 
       0 2551.99   3.425 2547.99  10.377 2547.99  13.802 2551.99
#Mann= 2 ,0,0
       0    .014       0  13.802    .014       0
Bank Sta=0,13.802
XS Rating Curve= 0 ,0
XS HTab Starting El and Incr=2548.14,0.19, 20 
XS HTab Horizontal Distribution= 5 , 5 , 5 
Exp/Cntr=0.3,0.1

Type RM Length L Ch R = 1 ,6.4660* ,50,50,50
Node Last Edited Time=sept/16/2024 17:41:27
#Sta/Elev= 4 
       02551.906   3.8452547.906  10.9132547.906  14.7582551.906
#Mann= 2 ,0,0
       0    .014       0  14.758    .014       0
Bank Sta=0,14.758
XS Rating Curve= 0 ,0
XS HTab Starting El and Incr=2548.06,0.19, 20 
XS HTab Horizontal Distribution= 5 , 5 , 5 
Exp/Cntr=0.3,0.1

Type RM Length L Ch R = 1 ,6.4077* ,50,50,50
Node Last Edited Time=sept/16/2024 17:41:27
#Sta/Elev= 4 
       02551.823   4.2642547.823  11.4492547.823  15.7132551.823
#Mann= 2 ,0,0
       0    .014       0  15.713    .014       0
Bank Sta=0,15.713
XS Rating Curve= 0 ,0
XS HTab Starting El and Incr=2547.97,0.19, 20 
XS HTab Horizontal Distribution= 5 , 5 , 5 
Exp/Cntr=0.3,0.1

Type RM Length L Ch R = 1 ,6.3495* ,50,50,50
Node Last Edited Time=sept/16/2024 17:41:27
#Sta/Elev= 4 
       0 2551.74   4.684 2547.74  11.985 2547.74  16.668 2551.74
#Mann= 2 ,0,0
       0    .014       0  16.668    .014       0
Bank Sta=0,16.668
XS Rating Curve= 0 ,0
XS HTab Starting El and Incr=2547.89,0.19, 20 
XS HTab Horizontal Distribution= 5 , 5 , 5 
Exp/Cntr=0.3,0.1

Type RM Length L Ch R = 1 ,6.2912* ,50,50,50
Node Last Edited Time=sept/16/2024 17:41:27
#Sta/Elev= 4 
       02551.656   5.1032547.656  12.5212547.656  17.6242551.656
#Mann= 2 ,0,0
       0    .014       0  17.624    .014       0
Bank Sta=0,17.624
XS Rating Curve= 0 ,0
XS HTab Starting El and Incr=2547.81,0.19, 20 
XS HTab Horizontal Distribution= 5 , 5 , 5 
Exp/Cntr=0.3,0.1

Type RM Length L Ch R = 1 ,6.2330* ,50,50,50
Node Last Edited Time=sept/16/2024 17:41:27
#Sta/Elev= 4 
       02551.573   5.5222547.573  13.0562547.573  18.5792551.573
#Mann= 2 ,0,0
       0    .015       0  18.579    .015       0
Bank Sta=0,18.579
XS Rating Curve= 0 ,0
XS HTab Starting El and Incr=2547.72,0.19, 20 
XS HTab Horizontal Distribution= 5 , 5 , 5 
Exp/Cntr=0.3,0.1

Type RM Length L Ch R = 1 ,6.1747* ,50,50,50
Node Last Edited Time=sept/16/2024 17:41:27
#Sta/Elev= 4 
       0 2551.49   5.942 2547.49  13.592 2547.49  19.534 2551.49
#Mann= 2 ,0,0
       0    .015       0  19.534    .015       0
Bank Sta=0,19.534
XS Rating Curve= 0 ,0
XS HTab Starting El and Incr=2547.64,0.19, 20 
XS HTab Horizontal Distribution= 5 , 5 , 5 
Exp/Cntr=0.3,0.1

Type RM Length L Ch R = 1 ,6.1165* ,50,50,50
Node Last Edited Time=sept/16/2024 17:41:27
#Sta/Elev= 4 
       02551.406   6.3612547.406  14.1282547.406  20.4892551.406
#Mann= 2 ,0,0
       0    .015       0  20.489    .015       0
Bank Sta=0,20.489
XS Rating Curve= 0 ,0
XS HTab Starting El and Incr=2547.56,0.19, 20 
XS HTab Horizontal Distribution= 5 , 5 , 5 
Exp/Cntr=0.3,0.1

Type RM Length L Ch R = 1 ,6.0582* ,50,50,50
Node Last Edited Time=sept/16/2024 17:41:27
#Sta/Elev= 4 
       02551.323   6.7812547.323  14.6642547.323  21.4452551.323
#Mann= 2 ,0,0
       0    .015       0  21.445    .015       0
Bank Sta=0,21.445
XS Rating Curve= 0 ,0
XS HTab Starting El and Incr=2547.47,0.19, 20 
XS HTab Horizontal Distribution= 5 , 5 , 5 
Exp/Cntr=0.3,0.1

Type RM Length L Ch R = 1 ,6       ,12.7,12.7,12.7
BEGIN DESCRIPTION:
K3+220.500
END DESCRIPTION:
Node Last Edited Time=sept/15/2024 22:46:51
#Sta/Elev= 4 
       0 2551.24     7.2 2547.24    15.2 2547.24    22.4 2551.24
#Mann= 3 ,0,0
       0               0       0    .015       0    22.4               0
Bank Sta=0,22.4
XS Rating Curve= 0 ,0
XS HTab Starting El and Incr=2547.39,0.19, 20 
XS HTab Horizontal Distribution= 5 , 5 , 5 
Exp/Cntr=0.3,0.1

Type RM Length L Ch R = 1 ,5.9403  ,20,20,20
Node Last Edited Time=sept/16/2024 17:38:06
#Sta/Elev= 4 
       02551.238     7.22547.238    15.22547.238    22.42551.238
#Mann= 2 ,0,0
       0    .015       0    22.4    .015       0
Bank Sta=0,22.4
XS Rating Curve= 0 ,0
XS HTab Starting El and Incr=2547.39,0.19, 20 
XS HTab Horizontal Distribution= 5 , 5 , 5 
Exp/Cntr=0.3,0.1

Type RM Length L Ch R = 1 ,5.8463* ,20,20,20
Node Last Edited Time=sept/16/2024 17:38:46
#Sta/Elev= 4 
       02551.235     7.22547.235    15.22547.235    22.42551.235
#Mann= 2 ,0,0
       0    .015       0    22.4    .015       0
Bank Sta=0,22.4
XS Rating Curve= 0 ,0
XS HTab Starting El and Incr=2547.39,0.19, 20 
XS HTab Horizontal Distribution= 5 , 5 , 5 
Exp/Cntr=0.3,0.1

Type RM Length L Ch R = 1 ,5.7522* ,20,20,20
Node Last Edited Time=sept/16/2024 17:38:46
#Sta/Elev= 4 
       02551.232     7.22547.232    15.22547.232    22.42551.232
#Mann= 2 ,0,0
       0    .015       0    22.4    .015       0
Bank Sta=0,22.4
XS Rating Curve= 0 ,0
XS HTab Starting El and Incr=2547.38,0.19, 20 
XS HTab Horizontal Distribution= 5 , 5 , 5 
Exp/Cntr=0.3,0.1

Type RM Length L Ch R = 1 ,5.6582* ,20,20,20
Node Last Edited Time=sept/16/2024 17:38:46
#Sta/Elev= 4 
       02551.229     7.22547.229    15.22547.229    22.42551.229
#Mann= 2 ,0,0
       0    .015       0    22.4    .015       0
Bank Sta=0,22.4
XS Rating Curve= 0 ,0
XS HTab Starting El and Incr=2547.38,0.19, 20 
XS HTab Horizontal Distribution= 5 , 5 , 5 
Exp/Cntr=0.3,0.1

Type RM Length L Ch R = 1 ,5.5642* ,20,20,20
Node Last Edited Time=sept/16/2024 17:38:46
#Sta/Elev= 4 
       02551.227     7.22547.227    15.22547.227    22.42551.227
#Mann= 2 ,0,0
       0    .015       0    22.4    .015       0
Bank Sta=0,22.4
XS Rating Curve= 0 ,0
XS HTab Starting El and Incr=2547.38,0.19, 20 
XS HTab Horizontal Distribution= 5 , 5 , 5 
Exp/Cntr=0.3,0.1

Type RM Length L Ch R = 1 ,5.4702* ,20,20,20
Node Last Edited Time=sept/16/2024 17:38:46
#Sta/Elev= 4 
       02551.224     7.22547.224    15.22547.224    22.42551.224
#Mann= 2 ,0,0
       0    .015       0    22.4    .015       0
Bank Sta=0,22.4
XS Rating Curve= 0 ,0
XS HTab Starting El and Incr=2547.38,0.19, 20 
XS HTab Horizontal Distribution= 5 , 5 , 5 
Exp/Cntr=0.3,0.1

Type RM Length L Ch R = 1 ,5.3761* ,20,20,20
Node Last Edited Time=sept/16/2024 17:38:46
#Sta/Elev= 4 
       02551.221     7.22547.221    15.22547.221    22.42551.221
#Mann= 2 ,0,0
       0    .015       0    22.4    .015       0
Bank Sta=0,22.4
XS Rating Curve= 0 ,0
XS HTab Starting El and Incr=2547.37,0.19, 20 
XS HTab Horizontal Distribution= 5 , 5 , 5 
Exp/Cntr=0.3,0.1

Type RM Length L Ch R = 1 ,5.2821* ,20,20,20
Node Last Edited Time=sept/16/2024 17:38:46
#Sta/Elev= 4 
       02551.218     7.22547.218    15.22547.218    22.42551.218
#Mann= 2 ,0,0
       0    .015       0    22.4    .015       0
Bank Sta=0,22.4
XS Rating Curve= 0 ,0
XS HTab Starting El and Incr=2547.37,0.19, 20 
XS HTab Horizontal Distribution= 5 , 5 , 5 
Exp/Cntr=0.3,0.1

Type RM Length L Ch R = 1 ,5.1881* ,20,20,20
Node Last Edited Time=sept/16/2024 17:38:46
#Sta/Elev= 4 
       02551.216     7.22547.216    15.22547.216    22.42551.216
#Mann= 2 ,0,0
       0    .015       0    22.4    .015       0
Bank Sta=0,22.4
XS Rating Curve= 0 ,0
XS HTab Starting El and Incr=2547.37,0.19, 20 
XS HTab Horizontal Distribution= 5 , 5 , 5 
Exp/Cntr=0.3,0.1

Type RM Length L Ch R = 1 ,5.0940* ,20,20,20
Node Last Edited Time=sept/16/2024 17:38:46
#Sta/Elev= 4 
       02551.213     7.22547.213    15.22547.213    22.42551.213
#Mann= 2 ,0,0
       0    .015       0    22.4    .015       0
Bank Sta=0,22.4
XS Rating Curve= 0 ,0
XS HTab Starting El and Incr=2547.36,0.19, 20 
XS HTab Horizontal Distribution= 5 , 5 , 5 
Exp/Cntr=0.3,0.1

Type RM Length L Ch R = 1 ,5       ,48,48,48
BEGIN DESCRIPTION:
K3+007.800
END DESCRIPTION:
Node Last Edited Time=sept/15/2024 22:47:07
#Sta/Elev= 4 
       0 2551.21     7.2 2547.21    15.2 2547.21    22.4 2551.21
#Mann= 3 ,0,0
       0               0       0    .015       0    22.4               0
Bank Sta=0,22.4
XS Rating Curve= 0 ,0
XS HTab Starting El and Incr=2547.36,0.19, 20 
XS HTab Horizontal Distribution= 5 , 5 , 5 
Exp/Cntr=0.3,0.1

Type RM Length L Ch R = 1 ,4.8621  ,50,50,50
Node Last Edited Time=sept/16/2024 17:28:06
#Sta/Elev= 4 
       02551.192     7.22547.192    15.22547.192    22.42551.192
#Mann= 2 ,0,0
       0    .015       0    22.4    .015       0
Bank Sta=0,22.4
XS Rating Curve= 0 ,0
XS HTab Starting El and Incr=2547.34,0.19, 20 
XS HTab Horizontal Distribution= 5 , 5 , 5 
Exp/Cntr=0.3,0.1

Type RM Length L Ch R = 1 ,4.7184* ,50,50,50
Node Last Edited Time=sept/16/2024 17:29:51
#Sta/Elev= 4 
       02551.173     7.22547.173    15.22547.173    22.42551.173
#Mann= 2 ,0,0
       0    .015       0    22.4    .015       0
Bank Sta=0,22.4
XS Rating Curve= 0 ,0
XS HTab Starting El and Incr=2547.32,0.19, 20 
XS HTab Horizontal Distribution= 5 , 5 , 5 
Exp/Cntr=0.3,0.1

Type RM Length L Ch R = 1 ,4.5747* ,50,50,50
Node Last Edited Time=sept/16/2024 17:29:51
#Sta/Elev= 4 
       02551.155     7.22547.155    15.22547.155    22.42551.155
#Mann= 2 ,0,0
       0    .015       0    22.4    .015       0
Bank Sta=0,22.4
XS Rating Curve= 0 ,0
XS HTab Starting El and Incr=2547.3,0.19, 20 
XS HTab Horizontal Distribution= 5 , 5 , 5 
Exp/Cntr=0.3,0.1

Type RM Length L Ch R = 1 ,4.4311* ,50,50,50
Node Last Edited Time=sept/16/2024 17:29:51
#Sta/Elev= 4 
       02551.136     7.22547.136    15.22547.136    22.42551.136
#Mann= 2 ,0,0
       0    .015       0    22.4    .015       0
Bank Sta=0,22.4
XS Rating Curve= 0 ,0
XS HTab Starting El and Incr=2547.29,0.19, 20 
XS HTab Horizontal Distribution= 5 , 5 , 5 
Exp/Cntr=0.3,0.1

Type RM Length L Ch R = 1 ,4.2874* ,50,50,50
Node Last Edited Time=sept/16/2024 17:29:51
#Sta/Elev= 4 
       02551.117     7.22547.117    15.22547.117    22.42551.117
#Mann= 2 ,0,0
       0    .015       0    22.4    .015       0
Bank Sta=0,22.4
XS Rating Curve= 0 ,0
XS HTab Starting El and Incr=2547.27,0.19, 20 
XS HTab Horizontal Distribution= 5 , 5 , 5 
Exp/Cntr=0.3,0.1

Type RM Length L Ch R = 1 ,4.1437* ,50,50,50
Node Last Edited Time=sept/16/2024 17:29:51
#Sta/Elev= 4 
       02551.099     7.22547.099    15.22547.099    22.42551.099
#Mann= 2 ,0,0
       0    .015       0    22.4    .015       0
Bank Sta=0,22.4
XS Rating Curve= 0 ,0
XS HTab Starting El and Incr=2547.25,0.19, 20 
XS HTab Horizontal Distribution= 5 , 5 , 5 
Exp/Cntr=0.3,0.1

Type RM Length L Ch R = 1 ,4       ,43.7,43.7,43.7
BEGIN DESCRIPTION:
K2+659.800
END DESCRIPTION:
Node Last Edited Time=sept/15/2024 22:45:57
#Sta/Elev= 4 
       0 2551.08     7.2 2547.08    15.2 2547.08    22.4 2551.08
#Mann= 3 ,0,0
       0               0       0    .015       0    22.4               0
Bank Sta=0,22.4
XS Rating Curve= 0 ,0
XS HTab Starting El and Incr=2547.23,0.19, 20 
XS HTab Horizontal Distribution= 5 , 5 , 5 
Exp/Cntr=0.3,0.1

Type RM Length L Ch R = 1 ,3.9015  ,50,50,50
Node Last Edited Time=sept/16/2024 17:26:42
#Sta/Elev= 4 
       02551.023   6.6482547.023  15.2392547.023  21.8882551.023
#Mann= 2 ,0,0
       0    .015       0  21.888    .015       0
Bank Sta=0,21.888
XS Rating Curve= 0 ,0
XS HTab Starting El and Incr=2547.17,0.19, 20 
XS HTab Horizontal Distribution= 5 , 5 , 5 
Exp/Cntr=0.3,0.1

Type RM Length L Ch R = 1 ,3.7888* ,50,50,50
Node Last Edited Time=sept/16/2024 17:27:24
#Sta/Elev= 4 
       02550.958   6.0172546.958  15.2842546.958  21.3022550.958
#Mann= 2 ,0,0
       0    .015       0  21.302    .015       0
Bank Sta=0,21.302
XS Rating Curve= 0 ,0
XS HTab Starting El and Incr=2547.1,0.19, 20 
XS HTab Horizontal Distribution= 5 , 5 , 5 
Exp/Cntr=0.3,0.1

Type RM Length L Ch R = 1 ,3.6761* ,50,50,50
Node Last Edited Time=sept/16/2024 17:27:24
#Sta/Elev= 4 
       02550.892   5.3862546.892  15.3292546.892  20.7162550.892
#Mann= 2 ,0,0
       0    .015       0  20.716    .015       0
Bank Sta=0,20.716
XS Rating Curve= 0 ,0
XS HTab Starting El and Incr=2547.04,0.19, 20 
XS HTab Horizontal Distribution= 5 , 5 , 5 
Exp/Cntr=0.3,0.1

Type RM Length L Ch R = 1 ,3.5634* ,50,50,50
Node Last Edited Time=sept/16/2024 17:27:24
#Sta/Elev= 4 
       02550.827   4.7552546.827  15.3742546.827   20.132550.827
#Mann= 2 ,0,0
       0    .015       0   20.13    .015       0
Bank Sta=0,20.13
XS Rating Curve= 0 ,0
XS HTab Starting El and Incr=2546.97,0.19, 20 
XS HTab Horizontal Distribution= 5 , 5 , 5 
Exp/Cntr=0.3,0.1

Type RM Length L Ch R = 1 ,3.4508* ,50,50,50
Node Last Edited Time=sept/16/2024 17:27:24
#Sta/Elev= 4 
       02550.761   4.1242546.761   15.422546.761  19.5442550.761
#Mann= 2 ,0,0
       0    .015       0  19.544    .015       0
Bank Sta=0,19.544
XS Rating Curve= 0 ,0
XS HTab Starting El and Incr=2546.91,0.19, 20 
XS HTab Horizontal Distribution= 5 , 5 , 5 
Exp/Cntr=0.3,0.1

Type RM Length L Ch R = 1 ,3.3381* ,50,50,50
Node Last Edited Time=sept/16/2024 17:27:24
#Sta/Elev= 4 
       02550.696   3.4932546.696  15.4652546.696  18.9582550.696
#Mann= 2 ,0,0
       0    .015       0  18.958    .015       0
Bank Sta=0,18.958
XS Rating Curve= 0 ,0
XS HTab Starting El and Incr=2546.84,0.19, 20 
XS HTab Horizontal Distribution= 5 , 5 , 5 
Exp/Cntr=0.3,0.1

Type RM Length L Ch R = 1 ,3.2254* ,50,50,50
Node Last Edited Time=sept/16/2024 17:27:24
#Sta/Elev= 4 
       02550.631   2.8622546.631   15.512546.631  18.3722550.631
#Mann= 2 ,0,0
       0    .015       0  18.372    .015       0
Bank Sta=0,18.372
XS Rating Curve= 0 ,0
XS HTab Starting El and Incr=2546.78,0.19, 20 
XS HTab Horizontal Distribution= 5 , 5 , 5 
Exp/Cntr=0.3,0.1

Type RM Length L Ch R = 1 ,3.1127* ,50,50,50
Node Last Edited Time=sept/16/2024 17:27:24
#Sta/Elev= 4 
       02550.565   2.2312546.565  15.5552546.565  17.7862550.565
#Mann= 2 ,0,0
       0    .015       0  17.786    .015       0
Bank Sta=0,17.786
XS Rating Curve= 0 ,0
XS HTab Starting El and Incr=2546.71,0.19, 20 
XS HTab Horizontal Distribution= 5 , 5 , 5 
Exp/Cntr=0.3,0.1

Type RM Length L Ch R = 1 ,3       ,38.3,38.3,38.3
BEGIN DESCRIPTION:
K2+216.100
END DESCRIPTION:
Node Last Edited Time=sept/15/2024 22:45:32
#Sta/Elev= 4 
       0  2550.5     1.6  2546.5    15.6  2546.5    17.2  2550.5
#Mann= 3 ,0,0
       0               0       0    .015       0    17.2               0
Bank Sta=0,17.2
XS Rating Curve= 0 ,0
XS HTab Starting El and Incr=2546.65,0.19, 20 
XS HTab Horizontal Distribution= 5 , 5 , 5 
Exp/Cntr=0.3,0.1

Type RM Length L Ch R = 1 ,2.9289  ,50,50,50
Node Last Edited Time=sept/16/2024 17:24:44
#Sta/Elev= 4 
       02550.487   2.1412546.487  15.7142546.487  17.8552550.487
#Mann= 2 ,0,0
       0    .015       0  17.855    .015       0
Bank Sta=0,17.855
XS Rating Curve= 0 ,0
XS HTab Starting El and Incr=2546.64,0.19, 20 
XS HTab Horizontal Distribution= 5 , 5 , 5 
Exp/Cntr=0.3,0.1

Type RM Length L Ch R = 1 ,2.8360* ,50,50,50
Node Last Edited Time=sept/16/2024 17:25:56
#Sta/Elev= 4 
       02550.469   2.8472546.469  15.8632546.469  18.7092550.469
#Mann= 2 ,0,0
       0    .015       0  18.709    .015       0
Bank Sta=0,18.709
XS Rating Curve= 0 ,0
XS HTab Starting El and Incr=2546.62,0.19, 20 
XS HTab Horizontal Distribution= 5 , 5 , 5 
Exp/Cntr=0.3,0.1

Type RM Length L Ch R = 1 ,2.7431* ,50,50,50
Node Last Edited Time=sept/16/2024 17:25:56
#Sta/Elev= 4 
       02550.452   3.5532546.452  16.0112546.452  19.5642550.452
#Mann= 2 ,0,0
       0    .015       0  19.564    .015       0
Bank Sta=0,19.564
XS Rating Curve= 0 ,0
XS HTab Starting El and Incr=2546.6,0.19, 20 
XS HTab Horizontal Distribution= 5 , 5 , 5 
Exp/Cntr=0.3,0.1

Type RM Length L Ch R = 1 ,2.6502* ,50,50,50
Node Last Edited Time=sept/16/2024 17:25:56
#Sta/Elev= 4 
       02550.434   4.2592546.434   16.162546.434  20.4182550.434
#Mann= 2 ,0,0
       0    .015       0  20.418    .015       0
Bank Sta=0,20.418
XS Rating Curve= 0 ,0
XS HTab Starting El and Incr=2546.59,0.19, 20 
XS HTab Horizontal Distribution= 5 , 5 , 5 
Exp/Cntr=0.3,0.1

Type RM Length L Ch R = 1 ,2.5573* ,50,50,50
Node Last Edited Time=sept/16/2024 17:25:56
#Sta/Elev= 4 
       02550.416   4.9652546.416  16.3082546.416  21.2732550.416
#Mann= 2 ,0,0
       0    .015       0  21.273    .015       0
Bank Sta=0,21.273
XS Rating Curve= 0 ,0
XS HTab Starting El and Incr=2546.57,0.19, 20 
XS HTab Horizontal Distribution= 5 , 5 , 5 
Exp/Cntr=0.3,0.1

Type RM Length L Ch R = 1 ,2.4645* ,50,50,50
Node Last Edited Time=sept/16/2024 17:25:56
#Sta/Elev= 4 
       02550.398    5.672546.398  16.4572546.398  22.1272550.398
#Mann= 2 ,0,0
       0    .015       0  22.127    .015       0
Bank Sta=0,22.127
XS Rating Curve= 0 ,0
XS HTab Starting El and Incr=2546.55,0.19, 20 
XS HTab Horizontal Distribution= 5 , 5 , 5 
Exp/Cntr=0.3,0.1

Type RM Length L Ch R = 1 ,2.3716* ,50,50,50
Node Last Edited Time=sept/16/2024 17:25:56
#Sta/Elev= 4 
       02550.381   6.3762546.381  16.6062546.381  22.9822550.381
#Mann= 2 ,0,0
       0    .015       0  22.982    .015       0
Bank Sta=0,22.982
XS Rating Curve= 0 ,0
XS HTab Starting El and Incr=2546.53,0.19, 20 
XS HTab Horizontal Distribution= 5 , 5 , 5 
Exp/Cntr=0.3,0.1
