Geom Title=Geom 01
Program Version=6.50
Viewing Rectangle= 0 , 1 , 1 , 0 

River Reach=Canal Toca      ,Canal           
Reach XY= 12 
 1.33633093525180.881294964028781.17446043165468 0.6636690647482
1.014388489208630.776978417266190.764388489208630.77338129496403
0.615107913669070.690647482014390.559352517985610.61510791366907
0.338129496402880.611510791366910.115107913669070.69064748201439
-0.04316546762590.73920863309353-0.27877697841720.49460431654676
-0.44784172661870.54676258992806-0.4424460431654 0.5431654676259
Rch Text X Y=0.8916367,0.7967626
Reverse River Text= 0 

Type RM Length L Ch R = 1 ,13      ,36.6,36.6,36.6
BEGIN DESCRIPTION:
K6+589.300
END DESCRIPTION:
Node Last Edited Time=sept/15/2024 22:51:50
#Sta/Elev= 4 
       0 2554.46       2 2550.46       5 2550.46       7 2554.46
#Mann= 3 ,0,0
       0               0       0    .015       0       7               0
Bank Sta=0,7
XS Rating Curve= 0 ,0
XS HTab Starting El and Incr=2550.61,0.19, 20 
XS HTab Horizontal Distribution= 5 , 5 , 5 
Exp/Cntr=0.3,0.1

Type RM Length L Ch R = 1 ,12.963  ,50,50,50
Node Last Edited Time=sept/16/2024 17:59:37
#Sta/Elev= 4 
       02554.423   2.1932550.423   5.3042550.423   7.4972554.423
#Mann= 2 ,0,0
       0    .015       0   7.497    .015       0
Bank Sta=0,7.497
XS Rating Curve= 0 ,0
XS HTab Starting El and Incr=2550.57,0.19, 21 
XS HTab Horizontal Distribution= 5 , 5 , 5 
Exp/Cntr=0.3,0.1

Type RM Length L Ch R = 1 ,12.912* ,50,50,50
Node Last Edited Time=sept/16/2024 18:00:21
#Sta/Elev= 4 
       02554.373   2.4572550.373    5.722550.373   8.1762554.373
#Mann= 2 ,0,0
       0    .015       0   8.176    .015       0
Bank Sta=0,8.176
XS Rating Curve= 0 ,0
XS HTab Starting El and Incr=2550.52,0.19, 22 
XS HTab Horizontal Distribution= 5 , 5 , 5 
Exp/Cntr=0.3,0.1

Type RM Length L Ch R = 1 ,12.862* ,50,50,50
Node Last Edited Time=sept/16/2024 18:00:21
#Sta/Elev= 4 
       02554.323    2.722550.323   6.1352550.323   8.8552554.323
#Mann= 2 ,0,0
       0    .015       0   8.855    .015       0
Bank Sta=0,8.855
XS Rating Curve= 0 ,0
XS HTab Starting El and Incr=2550.47,0.19, 22 
XS HTab Horizontal Distribution= 5 , 5 , 5 
Exp/Cntr=0.3,0.1

Type RM Length L Ch R = 1 ,12.811* ,50,50,50
Node Last Edited Time=sept/16/2024 18:00:21
#Sta/Elev= 4 
       02554.273   2.9842550.273   6.5512550.273   9.5342554.273
#Mann= 2 ,0,0
       0    .015       0   9.534    .015       0
Bank Sta=0,9.534
XS Rating Curve= 0 ,0
XS HTab Starting El and Incr=2550.42,0.19, 22 
XS HTab Horizontal Distribution= 5 , 5 , 5 
Exp/Cntr=0.3,0.1

Type RM Length L Ch R = 1 ,12.760* ,50,50,50
Node Last Edited Time=sept/16/2024 18:00:21
#Sta/Elev= 4 
       02554.222   3.2472550.222   6.9662550.222  10.2132554.222
#Mann= 2 ,0,0
       0    .015       0  10.213    .015       0
Bank Sta=0,10.213
XS Rating Curve= 0 ,0
XS HTab Starting El and Incr=2550.37,0.19, 22 
XS HTab Horizontal Distribution= 5 , 5 , 5 
Exp/Cntr=0.3,0.1

Type RM Length L Ch R = 1 ,12.710* ,50,50,50
Node Last Edited Time=sept/16/2024 18:00:21
#Sta/Elev= 4 
       02554.172   3.5112550.172   7.3822550.172  10.8932554.172
#Mann= 2 ,0,0
       0    .015       0  10.893    .015       0
Bank Sta=0,10.893
XS Rating Curve= 0 ,0
XS HTab Starting El and Incr=2550.32,0.19, 22 
XS HTab Horizontal Distribution= 5 , 5 , 5 
Exp/Cntr=0.3,0.1

Type RM Length L Ch R = 1 ,12.659* ,50,50,50
Node Last Edited Time=sept/16/2024 18:00:21
#Sta/Elev= 4 
       02554.122   3.7742550.122   7.7972550.122  11.5722554.122
#Mann= 2 ,0,0
       0    .015       0  11.572    .015       0
Bank Sta=0,11.572
XS Rating Curve= 0 ,0
XS HTab Starting El and Incr=2550.27,0.19, 22 
XS HTab Horizontal Distribution= 5 , 5 , 5 
Exp/Cntr=0.3,0.1

Type RM Length L Ch R = 1 ,12.608* ,50,50,50
Node Last Edited Time=sept/16/2024 18:00:21
#Sta/Elev= 4 
       02554.072   4.0382550.072   8.2132550.072  12.2512554.072
#Mann= 2 ,0,0
       0    .015       0  12.251    .015       0
Bank Sta=0,12.251
XS Rating Curve= 0 ,0
XS HTab Starting El and Incr=2550.22,0.19, 22 
XS HTab Horizontal Distribution= 5 , 5 , 5 
Exp/Cntr=0.3,0.1

Type RM Length L Ch R = 1 ,12.558* ,50,50,50
Node Last Edited Time=sept/16/2024 18:00:21
#Sta/Elev= 4 
       02554.022   4.3012550.022   8.6292550.022   12.932554.022
#Mann= 2 ,0,0
       0    .015       0   12.93    .015       0
Bank Sta=0,12.93
XS Rating Curve= 0 ,0
XS HTab Starting El and Incr=2550.17,0.19, 22 
XS HTab Horizontal Distribution= 5 , 5 , 5 
Exp/Cntr=0.3,0.1

Type RM Length L Ch R = 1 ,12.507* ,50,50,50
Node Last Edited Time=sept/16/2024 18:00:21
#Sta/Elev= 4 
       02553.972   4.5652549.972   9.0442549.972  13.6092553.972
#Mann= 2 ,0,0
       0    .015       0  13.609    .015       0
Bank Sta=0,13.609
XS Rating Curve= 0 ,0
XS HTab Starting El and Incr=2550.12,0.19, 22 
XS HTab Horizontal Distribution= 5 , 5 , 5 
Exp/Cntr=0.3,0.1

Type RM Length L Ch R = 1 ,12.456* ,50,50,50
Node Last Edited Time=sept/16/2024 18:00:21
#Sta/Elev= 4 
       02553.921   4.8282549.921    9.462549.921  14.2882553.921
#Mann= 2 ,0,0
       0    .015       0  14.288    .015       0
Bank Sta=0,14.288
XS Rating Curve= 0 ,0
XS HTab Starting El and Incr=2550.07,0.2, 20 
XS HTab Horizontal Distribution= 5 , 5 , 5 
Exp/Cntr=0.3,0.1

Type RM Length L Ch R = 1 ,12.405* ,50,50,50
Node Last Edited Time=sept/16/2024 18:00:21
#Sta/Elev= 4 
       02553.871   5.0922549.871   9.8752549.871  14.9672553.871
#Mann= 2 ,0,0
       0    .015       0  14.967    .015       0
Bank Sta=0,14.967
XS Rating Curve= 0 ,0
XS HTab Starting El and Incr=2550.02,0.2, 20 
XS HTab Horizontal Distribution= 5 , 5 , 5 
Exp/Cntr=0.3,0.1

Type RM Length L Ch R = 1 ,12.355* ,50,50,50
Node Last Edited Time=sept/16/2024 18:00:21
#Sta/Elev= 4 
       02553.821   5.3552549.821  10.2912549.821  15.6462553.821
#Mann= 2 ,0,0
       0    .015       0  15.646    .015       0
Bank Sta=0,15.646
XS Rating Curve= 0 ,0
XS HTab Starting El and Incr=2549.97,0.2, 20 
XS HTab Horizontal Distribution= 5 , 5 , 5 
Exp/Cntr=0.3,0.1

Type RM Length L Ch R = 1 ,12.304* ,50,50,50
Node Last Edited Time=sept/16/2024 18:00:21
#Sta/Elev= 4 
       02553.771   5.6192549.771  10.7072549.771  16.3252553.771
#Mann= 2 ,0,0
       0    .015       0  16.325    .015       0
Bank Sta=0,16.325
XS Rating Curve= 0 ,0
XS HTab Starting El and Incr=2549.92,0.2, 20 
XS HTab Horizontal Distribution= 5 , 5 , 5 
Exp/Cntr=0.3,0.1

Type RM Length L Ch R = 1 ,12.253* ,50,50,50
Node Last Edited Time=sept/16/2024 18:00:21
#Sta/Elev= 4 
       02553.721   5.8822549.721  11.1222549.721  17.0042553.721
#Mann= 2 ,0,0
       0    .015       0  17.004    .015       0
Bank Sta=0,17.004
XS Rating Curve= 0 ,0
XS HTab Starting El and Incr=2549.87,0.2, 20 
XS HTab Horizontal Distribution= 5 , 5 , 5 
Exp/Cntr=0.3,0.1

Type RM Length L Ch R = 1 ,12.203* ,50,50,50
Node Last Edited Time=sept/16/2024 18:00:21
#Sta/Elev= 4 
       02553.671   6.1462549.671  11.5382549.671  17.6842553.671
#Mann= 2 ,0,0
       0    .015       0  17.684    .015       0
Bank Sta=0,17.684
XS Rating Curve= 0 ,0
XS HTab Starting El and Incr=2549.82,0.2, 20 
XS HTab Horizontal Distribution= 5 , 5 , 5 
Exp/Cntr=0.3,0.1

Type RM Length L Ch R = 1 ,12.152* ,50,50,50
Node Last Edited Time=sept/16/2024 18:00:21
#Sta/Elev= 4 
       0 2553.62   6.409 2549.62  11.953 2549.62  18.363 2553.62
#Mann= 2 ,0,0
       0    .015       0  18.363    .015       0
Bank Sta=0,18.363
XS Rating Curve= 0 ,0
XS HTab Starting El and Incr=2549.77,0.2, 20 
XS HTab Horizontal Distribution= 5 , 5 , 5 
Exp/Cntr=0.3,0.1

Type RM Length L Ch R = 1 ,12.101* ,50,50,50
Node Last Edited Time=sept/16/2024 18:00:21
#Sta/Elev= 4 
       0 2553.57   6.673 2549.57  12.369 2549.57  19.042 2553.57
#Mann= 2 ,0,0
       0    .015       0  19.042    .015       0
Bank Sta=0,19.042
XS Rating Curve= 0 ,0
XS HTab Starting El and Incr=2549.72,0.2, 20 
XS HTab Horizontal Distribution= 5 , 5 , 5 
Exp/Cntr=0.3,0.1

Type RM Length L Ch R = 1 ,12.051* ,50,50,50
Node Last Edited Time=sept/16/2024 18:00:21
#Sta/Elev= 4 
       0 2553.52   6.936 2549.52  12.784 2549.52  19.721 2553.52
#Mann= 2 ,0,0
       0    .015       0  19.721    .015       0
Bank Sta=0,19.721
XS Rating Curve= 0 ,0
XS HTab Starting El and Incr=2549.67,0.2, 20 
XS HTab Horizontal Distribution= 5 , 5 , 5 
Exp/Cntr=0.3,0.1

Type RM Length L Ch R = 1 ,12      ,1.4,1.4,1.4
BEGIN DESCRIPTION:
K5+602.700
END DESCRIPTION:
Node Last Edited Time=sept/16/2024 17:04:37
#Sta/Elev= 4 
       0 2553.47     7.2 2549.47    13.2 2549.47    20.4 2553.47
#Mann= 3 ,0,0
       0               0       0    .015       0    20.4               0
Bank Sta=0,20.4
XS Rating Curve= 0 ,0
XS HTab Starting El and Incr=2549.62,0.2, 20 
XS HTab Horizontal Distribution= 5 , 5 , 5 
Exp/Cntr=0.3,0.1

Type RM Length L Ch R = 1 ,11.993  ,10,10,10
Node Last Edited Time=sept/16/2024 17:55:42
#Sta/Elev= 4 
       0 2553.47   7.186 2549.47    13.2 2549.47  20.386 2553.47
#Mann= 2 ,0,0
       0    .015       0  20.386    .015       0
Bank Sta=0,20.386
XS Rating Curve= 0 ,0
XS HTab Starting El and Incr=2549.62,0.2, 20 
XS HTab Horizontal Distribution= 5 , 5 , 5 
Exp/Cntr=0.3,0.1

Type RM Length L Ch R = 1 ,11.943* ,10,10,10
Node Last Edited Time=sept/16/2024 17:57:31
#Sta/Elev= 4 
       02553.472   7.0872549.472    13.22549.472  20.2872553.472
#Mann= 2 ,0,0
       0    .015       0  20.287    .015       0
Bank Sta=0,20.287
XS Rating Curve= 0 ,0
XS HTab Starting El and Incr=2549.62,0.2, 20 
XS HTab Horizontal Distribution= 5 , 5 , 5 
Exp/Cntr=0.3,0.1

Type RM Length L Ch R = 1 ,11.894* ,10,10,10
Node Last Edited Time=sept/16/2024 17:57:31
#Sta/Elev= 4 
       02553.475   6.9872549.475    13.22549.475  20.1872553.475
#Mann= 2 ,0,0
       0    .015       0  20.187    .015       0
Bank Sta=0,20.187
XS Rating Curve= 0 ,0
XS HTab Starting El and Incr=2549.62,0.2, 20 
XS HTab Horizontal Distribution= 5 , 5 , 5 
Exp/Cntr=0.3,0.1

Type RM Length L Ch R = 1 ,11.844* ,10,10,10
Node Last Edited Time=sept/16/2024 17:57:31
#Sta/Elev= 4 
       02553.478   6.8882549.478    13.22549.478  20.0882553.478
#Mann= 2 ,0,0
       0    .015       0  20.088    .015       0
Bank Sta=0,20.088
XS Rating Curve= 0 ,0
XS HTab Starting El and Incr=2549.63,0.2, 20 
XS HTab Horizontal Distribution= 5 , 5 , 5 
Exp/Cntr=0.3,0.1

Type RM Length L Ch R = 1 ,11.794* ,10,10,10
Node Last Edited Time=sept/16/2024 17:57:31
#Sta/Elev= 4 
       0 2553.48   6.789 2549.48    13.2 2549.48  19.989 2553.48
#Mann= 2 ,0,0
       0    .015       0  19.989    .015       0
Bank Sta=0,19.989
XS Rating Curve= 0 ,0
XS HTab Starting El and Incr=2549.63,0.2, 20 
XS HTab Horizontal Distribution= 5 , 5 , 5 
Exp/Cntr=0.3,0.1

Type RM Length L Ch R = 1 ,11.745* ,10,10,10
Node Last Edited Time=sept/16/2024 18:02:47
#Sta/Elev= 4 
       02553.482   6.6892549.482    13.22549.482  19.8892553.482
#Mann= 2 ,0,0
       0    .015       0  19.889    .015       0
Bank Sta=0,19.889
XS Rating Curve= 0 ,0
XS HTab Starting El and Incr=2549.63,0.2, 20 
XS HTab Horizontal Distribution= 5 , 5 , 5 
Exp/Cntr=0.3,0.1

Type RM Length L Ch R = 1 ,11.695* ,10,10,10
Node Last Edited Time=sept/16/2024 18:02:47
#Sta/Elev= 4 
       02553.485    6.592549.485    13.22549.485   19.792553.485
#Mann= 2 ,0,0
       0    .015       0   19.79    .015       0
Bank Sta=0,19.79
XS Rating Curve= 0 ,0
XS HTab Starting El and Incr=2549.64,0.2, 20 
XS HTab Horizontal Distribution= 5 , 5 , 5 
Exp/Cntr=0.3,0.1

Type RM Length L Ch R = 1 ,11.645* ,10,10,10
Node Last Edited Time=sept/16/2024 18:02:47
#Sta/Elev= 4 
       02553.488   6.4912549.488    13.22549.488  19.6912553.488
#Mann= 2 ,0,0
       0    .015       0  19.691    .015       0
Bank Sta=0,19.691
XS Rating Curve= 0 ,0
XS HTab Starting El and Incr=2549.64,0.2, 20 
XS HTab Horizontal Distribution= 5 , 5 , 5 
Exp/Cntr=0.3,0.1

Type RM Length L Ch R = 1 ,11.596* ,10,10,10
Node Last Edited Time=sept/16/2024 18:02:47
#Sta/Elev= 4 
       0 2553.49   6.392 2549.49    13.2 2549.49  19.592 2553.49
#Mann= 2 ,0,0
       0    .015       0  19.592    .015       0
Bank Sta=0,19.592
XS Rating Curve= 0 ,0
XS HTab Starting El and Incr=2549.64,0.2, 20 
XS HTab Horizontal Distribution= 5 , 5 , 5 
Exp/Cntr=0.3,0.1

Type RM Length L Ch R = 1 ,11.546* ,10,10,10
Node Last Edited Time=sept/16/2024 18:02:47
#Sta/Elev= 4 
       02553.492   6.2922549.492    13.22549.492  19.4922553.492
#Mann= 2 ,0,0
       0    .015       0  19.492    .015       0
Bank Sta=0,19.492
XS Rating Curve= 0 ,0
XS HTab Starting El and Incr=2549.64,0.2, 20 
XS HTab Horizontal Distribution= 5 , 5 , 5 
Exp/Cntr=0.3,0.1

Type RM Length L Ch R = 1 ,11.497* ,10,10,10
Node Last Edited Time=sept/16/2024 18:02:47
#Sta/Elev= 4 
       02553.495   6.1932549.495    13.22549.495  19.3932553.495
#Mann= 2 ,0,0
       0    .015       0  19.393    .015       0
Bank Sta=0,19.393
XS Rating Curve= 0 ,0
XS HTab Starting El and Incr=2549.65,0.19, 21 
XS HTab Horizontal Distribution= 5 , 5 , 5 
Exp/Cntr=0.3,0.1

Type RM Length L Ch R = 1 ,11.447* ,10,10,10
Node Last Edited Time=sept/16/2024 18:02:47
#Sta/Elev= 4 
       02553.498   6.0942549.498    13.22549.498  19.2942553.498
#Mann= 2 ,0,0
       0    .015       0  19.294    .015       0
Bank Sta=0,19.294
XS Rating Curve= 0 ,0
XS HTab Starting El and Incr=2549.65,0.19, 21 
XS HTab Horizontal Distribution= 5 , 5 , 5 
Exp/Cntr=0.3,0.1

Type RM Length L Ch R = 1 ,11.397* ,10,10,10
Node Last Edited Time=sept/16/2024 18:02:47
#Sta/Elev= 4 
       0  2553.5   5.994  2549.5    13.2  2549.5  19.194  2553.5
#Mann= 2 ,0,0
       0    .015       0  19.194    .015       0
Bank Sta=0,19.194
XS Rating Curve= 0 ,0
XS HTab Starting El and Incr=2549.65,0.19, 21 
XS HTab Horizontal Distribution= 5 , 5 , 5 
Exp/Cntr=0.3,0.1

Type RM Length L Ch R = 1 ,11.348* ,10,10,10
Node Last Edited Time=sept/16/2024 18:02:47
#Sta/Elev= 4 
       02553.502   5.8952549.502    13.22549.502  19.0952553.502
#Mann= 2 ,0,0
       0    .015       0  19.095    .015       0
Bank Sta=0,19.095
XS Rating Curve= 0 ,0
XS HTab Starting El and Incr=2549.65,0.19, 21 
XS HTab Horizontal Distribution= 5 , 5 , 5 
Exp/Cntr=0.3,0.1

Type RM Length L Ch R = 1 ,11.298* ,10,10,10
Node Last Edited Time=sept/16/2024 18:02:47
#Sta/Elev= 4 
       02553.505   5.7962549.505    13.22549.505  18.9962553.505
#Mann= 2 ,0,0
       0    .015       0  18.996    .015       0
Bank Sta=0,18.996
XS Rating Curve= 0 ,0
XS HTab Starting El and Incr=2549.66,0.19, 21 
XS HTab Horizontal Distribution= 5 , 5 , 5 
Exp/Cntr=0.3,0.1

Type RM Length L Ch R = 1 ,11.248* ,10,10,10
Node Last Edited Time=sept/16/2024 18:02:47
#Sta/Elev= 4 
       02553.508   5.6962549.508    13.22549.508  18.8962553.508
#Mann= 2 ,0,0
       0    .015       0  18.896    .015       0
Bank Sta=0,18.896
XS Rating Curve= 0 ,0
XS HTab Starting El and Incr=2549.66,0.19, 21 
XS HTab Horizontal Distribution= 5 , 5 , 5 
Exp/Cntr=0.3,0.1

Type RM Length L Ch R = 1 ,11.199* ,10,10,10
Node Last Edited Time=sept/16/2024 18:02:47
#Sta/Elev= 4 
       0 2553.51   5.597 2549.51    13.2 2549.51  18.797 2553.51
#Mann= 2 ,0,0
       0    .015       0  18.797    .015       0
Bank Sta=0,18.797
XS Rating Curve= 0 ,0
XS HTab Starting El and Incr=2549.66,0.19, 21 
XS HTab Horizontal Distribution= 5 , 5 , 5 
Exp/Cntr=0.3,0.1

Type RM Length L Ch R = 1 ,11.149* ,10,10,10
Node Last Edited Time=sept/16/2024 18:02:47
#Sta/Elev= 4 
       02553.512   5.4982549.512    13.22549.512  18.6982553.512
#Mann= 2 ,0,0
       0    .015       0  18.698    .015       0
Bank Sta=0,18.698
XS Rating Curve= 0 ,0
XS HTab Starting El and Incr=2549.66,0.19, 21 
XS HTab Horizontal Distribution= 5 , 5 , 5 
Exp/Cntr=0.3,0.1

Type RM Length L Ch R = 1 ,11.099* ,10,10,10
Node Last Edited Time=sept/16/2024 18:02:47
#Sta/Elev= 4 
       02553.515   5.3992549.515    13.22549.515  18.5992553.515
#Mann= 2 ,0,0
       0    .015       0  18.599    .015       0
Bank Sta=0,18.599
XS Rating Curve= 0 ,0
XS HTab Starting El and Incr=2549.67,0.19, 21 
XS HTab Horizontal Distribution= 5 , 5 , 5 
Exp/Cntr=0.3,0.1

Type RM Length L Ch R = 1 ,11.050* ,10,10,10
Node Last Edited Time=sept/16/2024 18:02:47
#Sta/Elev= 4 
       02553.518   5.2992549.518    13.22549.518  18.4992553.518
#Mann= 2 ,0,0
       0    .015       0  18.499    .015       0
Bank Sta=0,18.499
XS Rating Curve= 0 ,0
XS HTab Starting El and Incr=2549.67,0.19, 21 
XS HTab Horizontal Distribution= 5 , 5 , 5 
Exp/Cntr=0.3,0.1

Type RM Length L Ch R = 1 ,11      ,3.6,3.6,3.6
BEGIN DESCRIPTION:
K5+401.300
END DESCRIPTION:
Node Last Edited Time=sept/15/2024 22:50:25
#Sta/Elev= 4 
       0 2553.52     5.2 2549.52    13.2 2549.52    18.4 2553.52
#Mann= 3 ,0,0
       0               0       0    .013       0    18.4               0
Bank Sta=0,18.4
XS Rating Curve= 0 ,0
XS HTab Starting El and Incr=2549.67,0.19, 20 
XS HTab Horizontal Distribution= 5 , 5 , 5 
Exp/Cntr=0.3,0.1

Type RM Length L Ch R = 1 ,10.985  ,10,10,10
Node Last Edited Time=sept/16/2024 17:54:26
#Sta/Elev= 4 
       02553.517   5.2242549.517  13.3122549.517  18.5362553.517
#Mann= 2 ,0,0
       0    .013       0  18.536    .013       0
Bank Sta=0,18.536
XS Rating Curve= 0 ,0
XS HTab Starting El and Incr=2549.67,0.19, 20 
XS HTab Horizontal Distribution= 5 , 5 , 5 
Exp/Cntr=0.3,0.1

Type RM Length L Ch R = 1 ,10.944* ,10,10,10
Node Last Edited Time=sept/16/2024 17:55:00
#Sta/Elev= 4 
       02553.508    5.292549.508  13.6242549.508  18.9142553.508
#Mann= 2 ,0,0
       0    .013       0  18.914    .013       0
Bank Sta=0,18.914
XS Rating Curve= 0 ,0
XS HTab Starting El and Incr=2549.66,0.19, 20 
XS HTab Horizontal Distribution= 5 , 5 , 5 
Exp/Cntr=0.3,0.1

Type RM Length L Ch R = 1 ,10.903* ,10,10,10
Node Last Edited Time=sept/16/2024 17:55:00
#Sta/Elev= 4 
       02553.499   5.3552549.499  13.9362549.499  19.2912553.499
#Mann= 2 ,0,0
       0    .013       0  19.291    .013       0
Bank Sta=0,19.291
XS Rating Curve= 0 ,0
XS HTab Starting El and Incr=2549.65,0.19, 20 
XS HTab Horizontal Distribution= 5 , 5 , 5 
Exp/Cntr=0.3,0.1

Type RM Length L Ch R = 1 ,10.862* ,10,10,10
Node Last Edited Time=sept/16/2024 17:55:00
#Sta/Elev= 4 
       0 2553.49   5.421 2549.49  14.248 2549.49  19.669 2553.49
#Mann= 2 ,0,0
       0    .013       0  19.669    .013       0
Bank Sta=0,19.669
XS Rating Curve= 0 ,0
XS HTab Starting El and Incr=2549.64,0.19, 20 
XS HTab Horizontal Distribution= 5 , 5 , 5 
Exp/Cntr=0.3,0.1

Type RM Length L Ch R = 1 ,10.821* ,10,10,10
Node Last Edited Time=sept/16/2024 17:55:00
#Sta/Elev= 4 
       02553.481   5.4872549.481   14.562549.481  20.0472553.481
#Mann= 2 ,0,0
       0    .013       0  20.047    .013       0
Bank Sta=0,20.047
XS Rating Curve= 0 ,0
XS HTab Starting El and Incr=2549.63,0.19, 20 
XS HTab Horizontal Distribution= 5 , 5 , 5 
Exp/Cntr=0.3,0.1

Type RM Length L Ch R = 1 ,10.780* ,10,10,10
Node Last Edited Time=sept/16/2024 17:55:00
#Sta/Elev= 4 
       02553.472   5.5522549.472  14.8722549.472  20.4242553.472
#Mann= 2 ,0,0
       0    .013       0  20.424    .013       0
Bank Sta=0,20.424
XS Rating Curve= 0 ,0
XS HTab Starting El and Incr=2549.62,0.19, 20 
XS HTab Horizontal Distribution= 5 , 5 , 5 
Exp/Cntr=0.3,0.1

Type RM Length L Ch R = 1 ,10.739* ,10,10,10
Node Last Edited Time=sept/16/2024 18:02:47
#Sta/Elev= 4 
       02553.463   5.6182549.463  15.1842549.463  20.8022553.463
#Mann= 2 ,0,0
       0    .013       0  20.802    .013       0
Bank Sta=0,20.802
XS Rating Curve= 0 ,0
XS HTab Starting El and Incr=2549.61,0.19, 20 
XS HTab Horizontal Distribution= 5 , 5 , 5 
Exp/Cntr=0.3,0.1

Type RM Length L Ch R = 1 ,10.698* ,10,10,10
Node Last Edited Time=sept/16/2024 18:02:47
#Sta/Elev= 4 
       02553.454   5.6842549.454  15.4962549.454   21.182553.454
#Mann= 2 ,0,0
       0    .013       0   21.18    .013       0
Bank Sta=0,21.18
XS Rating Curve= 0 ,0
XS HTab Starting El and Incr=2549.61,0.19, 20 
XS HTab Horizontal Distribution= 5 , 5 , 5 
Exp/Cntr=0.3,0.1

Type RM Length L Ch R = 1 ,10.657* ,10,10,10
Node Last Edited Time=sept/16/2024 18:02:47
#Sta/Elev= 4 
       02553.445   5.7492549.445  15.8082549.445  21.5582553.445
#Mann= 2 ,0,0
       0    .013       0  21.558    .013       0
Bank Sta=0,21.558
XS Rating Curve= 0 ,0
XS HTab Starting El and Incr=2549.6,0.19, 20 
XS HTab Horizontal Distribution= 5 , 5 , 5 
Exp/Cntr=0.3,0.1

Type RM Length L Ch R = 1 ,10.616* ,10,10,10
Node Last Edited Time=sept/16/2024 18:02:47
#Sta/Elev= 4 
       02553.436   5.8152549.436   16.122549.436  21.9352553.436
#Mann= 2 ,0,0
       0    .013       0  21.935    .013       0
Bank Sta=0,21.935
XS Rating Curve= 0 ,0
XS HTab Starting El and Incr=2549.59,0.19, 20 
XS HTab Horizontal Distribution= 5 , 5 , 5 
Exp/Cntr=0.3,0.1

Type RM Length L Ch R = 1 ,10.575* ,10,10,10
Node Last Edited Time=sept/16/2024 18:02:47
#Sta/Elev= 4 
       02553.427   5.8812549.427  16.4322549.427  22.3132553.427
#Mann= 2 ,0,0
       0    .013       0  22.313    .013       0
Bank Sta=0,22.313
XS Rating Curve= 0 ,0
XS HTab Starting El and Incr=2549.58,0.19, 20 
XS HTab Horizontal Distribution= 5 , 5 , 5 
Exp/Cntr=0.3,0.1

Type RM Length L Ch R = 1 ,10.534* ,10,10,10
Node Last Edited Time=sept/16/2024 18:02:47
#Sta/Elev= 4 
       02553.418   5.9462549.418  16.7442549.418  22.6912553.418
#Mann= 2 ,0,0
       0    .013       0  22.691    .013       0
Bank Sta=0,22.691
XS Rating Curve= 0 ,0
XS HTab Starting El and Incr=2549.57,0.19, 20 
XS HTab Horizontal Distribution= 5 , 5 , 5 
Exp/Cntr=0.3,0.1

Type RM Length L Ch R = 1 ,10.492* ,10,10,10
Node Last Edited Time=sept/16/2024 18:02:47
#Sta/Elev= 4 
       02553.408   6.0122549.408  17.0562549.408  23.0682553.408
#Mann= 2 ,0,0
       0    .013       0  23.068    .013       0
Bank Sta=0,23.068
XS Rating Curve= 0 ,0
XS HTab Starting El and Incr=2549.56,0.19, 20 
XS HTab Horizontal Distribution= 5 , 5 , 5 
Exp/Cntr=0.3,0.1

Type RM Length L Ch R = 1 ,10.451* ,10,10,10
Node Last Edited Time=sept/16/2024 18:02:47
#Sta/Elev= 4 
       02553.399   6.0782549.399  17.3682549.399  23.4462553.399
#Mann= 2 ,0,0
       0    .013       0  23.446    .013       0
Bank Sta=0,23.446
XS Rating Curve= 0 ,0
XS HTab Starting El and Incr=2549.55,0.19, 20 
XS HTab Horizontal Distribution= 5 , 5 , 5 
Exp/Cntr=0.3,0.1

Type RM Length L Ch R = 1 ,10.410* ,10,10,10
Node Last Edited Time=sept/16/2024 18:02:47
#Sta/Elev= 4 
       0 2553.39   6.143 2549.39   17.68 2549.39  23.824 2553.39
#Mann= 2 ,0,0
       0    .013       0  23.824    .013       0
Bank Sta=0,23.824
XS Rating Curve= 0 ,0
XS HTab Starting El and Incr=2549.54,0.19, 20 
XS HTab Horizontal Distribution= 5 , 5 , 5 
Exp/Cntr=0.3,0.1

Type RM Length L Ch R = 1 ,10.369* ,10,10,10
Node Last Edited Time=sept/16/2024 18:02:47
#Sta/Elev= 4 
       02553.381   6.2092549.381  17.9922549.381  24.2012553.381
#Mann= 2 ,0,0
       0    .013       0  24.201    .013       0
Bank Sta=0,24.201
XS Rating Curve= 0 ,0
XS HTab Starting El and Incr=2549.53,0.19, 20 
XS HTab Horizontal Distribution= 5 , 5 , 5 
Exp/Cntr=0.3,0.1

Type RM Length L Ch R = 1 ,10.328* ,10,10,10
Node Last Edited Time=sept/16/2024 18:02:47
#Sta/Elev= 4 
       02553.372   6.2752549.372  18.3042549.372  24.5792553.372
#Mann= 2 ,0,0
       0    .013       0  24.579    .013       0
Bank Sta=0,24.579
XS Rating Curve= 0 ,0
XS HTab Starting El and Incr=2549.52,0.19, 20 
XS HTab Horizontal Distribution= 5 , 5 , 5 
Exp/Cntr=0.3,0.1

Type RM Length L Ch R = 1 ,10.287* ,10,10,10
Node Last Edited Time=sept/16/2024 18:02:47
#Sta/Elev= 4 
       02553.363    6.342549.363  18.6162549.363  24.9572553.363
#Mann= 2 ,0,0
       0    .013       0  24.957    .013       0
Bank Sta=0,24.957
XS Rating Curve= 0 ,0
XS HTab Starting El and Incr=2549.51,0.19, 20 
XS HTab Horizontal Distribution= 5 , 5 , 5 
Exp/Cntr=0.3,0.1

Type RM Length L Ch R = 1 ,10.246* ,10,10,10
Node Last Edited Time=sept/16/2024 18:02:47
#Sta/Elev= 4 
       02553.354   6.4062549.354  18.9282549.354  25.3352553.354
#Mann= 2 ,0,0
       0    .013       0  25.335    .013       0
Bank Sta=0,25.335
XS Rating Curve= 0 ,0
XS HTab Starting El and Incr=2549.5,0.19, 20 
XS HTab Horizontal Distribution= 5 , 5 , 5 
Exp/Cntr=0.3,0.1

Type RM Length L Ch R = 1 ,10.205* ,10,10,10
Node Last Edited Time=sept/16/2024 18:02:47
#Sta/Elev= 4 
       02553.345   6.4722549.345   19.242549.345  25.7122553.345
#Mann= 2 ,0,0
       0    .013       0  25.712    .013       0
Bank Sta=0,25.712
XS Rating Curve= 0 ,0
XS HTab Starting El and Incr=2549.5,0.19, 20 
XS HTab Horizontal Distribution= 5 , 5 , 5 
Exp/Cntr=0.3,0.1

Type RM Length L Ch R = 1 ,10.164* ,10,10,10
Node Last Edited Time=sept/16/2024 18:02:47
#Sta/Elev= 4 
       02553.336   6.5372549.336  19.5532549.336   26.092553.336
#Mann= 2 ,0,0
       0    .013       0   26.09    .013       0
Bank Sta=0,26.09
XS Rating Curve= 0 ,0
XS HTab Starting El and Incr=2549.49,0.19, 20 
XS HTab Horizontal Distribution= 5 , 5 , 5 
Exp/Cntr=0.3,0.1

Type RM Length L Ch R = 1 ,10.123* ,10,10,10
Node Last Edited Time=sept/16/2024 18:02:47
#Sta/Elev= 4 
       02553.327   6.6032549.327  19.8652549.327  26.4682553.327
#Mann= 2 ,0,0
       0    .013       0  26.468    .013       0
Bank Sta=0,26.468
XS Rating Curve= 0 ,0
XS HTab Starting El and Incr=2549.48,0.19, 20 
XS HTab Horizontal Distribution= 5 , 5 , 5 
Exp/Cntr=0.3,0.1

Type RM Length L Ch R = 1 ,10.082* ,10,10,10
Node Last Edited Time=sept/16/2024 18:02:47
#Sta/Elev= 4 
       02553.318   6.6692549.318  20.1772549.318  26.8452553.318
#Mann= 2 ,0,0
       0    .013       0  26.845    .013       0
Bank Sta=0,26.845
XS Rating Curve= 0 ,0
XS HTab Starting El and Incr=2549.47,0.19, 20 
XS HTab Horizontal Distribution= 5 , 5 , 5 
Exp/Cntr=0.3,0.1

Type RM Length L Ch R = 1 ,10.041* ,9.98,9.98,9.98
Node Last Edited Time=sept/16/2024 18:02:47
#Sta/Elev= 4 
       02553.309   6.7342549.309  20.4892549.309  27.2232553.309
#Mann= 2 ,0,0
       0    .013       0  27.223    .013       0
Bank Sta=0,27.223
XS Rating Curve= 0 ,0
XS HTab Starting El and Incr=2549.46,0.19, 20 
XS HTab Horizontal Distribution= 5 , 5 , 5 
Exp/Cntr=0.3,0.1

Type RM Length L Ch R = 1 ,10      ,9.1,9.1,9.1
BEGIN DESCRIPTION:
K5+157.700
END DESCRIPTION:
Node Last Edited Time=sept/15/2024 22:49:49
#Sta/Elev= 4 
       0  2553.3     6.8  2549.3    20.8  2549.3    27.6  2553.3
#Mann= 3 ,0,0
       0               0       0    .015       0    27.6               0
Bank Sta=0,27.6
XS Rating Curve= 0 ,0
XS HTab Starting El and Incr=2549.45,0.19, 20 
XS HTab Horizontal Distribution= 5 , 5 , 5 
Exp/Cntr=0.3,0.1

Type RM Length L Ch R = 1 ,9.9685  ,20,20,20
Node Last Edited Time=sept/16/2024 17:48:50
#Sta/Elev= 4 
       02553.295   6.7372549.295  20.7692549.295  27.5062553.295
#Mann= 2 ,0,0
       0    .015       0  27.506    .015       0
Bank Sta=0,27.506
XS Rating Curve= 0 ,0
XS HTab Starting El and Incr=2549.45,0.19, 20 
XS HTab Horizontal Distribution= 5 , 5 , 5 
Exp/Cntr=0.3,0.1

Type RM Length L Ch R = 1 ,9.8993* ,20,20,20
Node Last Edited Time=sept/16/2024 17:53:15
#Sta/Elev= 4 
       02553.285   6.5992549.285    20.72549.285  27.2982553.285
#Mann= 2 ,0,0
       0    .015       0  27.298    .015       0
Bank Sta=0,27.298
XS Rating Curve= 0 ,0
XS HTab Starting El and Incr=2549.44,0.19, 20 
XS HTab Horizontal Distribution= 5 , 5 , 5 
Exp/Cntr=0.3,0.1

Type RM Length L Ch R = 1 ,9.8301* ,20,20,20
Node Last Edited Time=sept/16/2024 17:53:15
#Sta/Elev= 4 
       02553.274    6.462549.274  20.6312549.274  27.0912553.274
#Mann= 2 ,0,0
       0    .015       0  27.091    .015       0
Bank Sta=0,27.091
XS Rating Curve= 0 ,0
XS HTab Starting El and Incr=2549.43,0.19, 20 
XS HTab Horizontal Distribution= 5 , 5 , 5 
Exp/Cntr=0.3,0.1

Type RM Length L Ch R = 1 ,9.7610* ,20,20,20
Node Last Edited Time=sept/16/2024 17:53:15
#Sta/Elev= 4 
       02553.264   6.3222549.264  20.5612549.264  26.8832553.264
#Mann= 2 ,0,0
       0    .015       0  26.883    .015       0
Bank Sta=0,26.883
XS Rating Curve= 0 ,0
XS HTab Starting El and Incr=2549.42,0.19, 20 
XS HTab Horizontal Distribution= 5 , 5 , 5 
Exp/Cntr=0.3,0.1

Type RM Length L Ch R = 1 ,9.6918* ,20,20,20
Node Last Edited Time=sept/16/2024 17:53:15
#Sta/Elev= 4 
       02553.253   6.1842549.253  20.4922549.253  26.6762553.253
#Mann= 2 ,0,0
       0    .015       0  26.676    .015       0
Bank Sta=0,26.676
XS Rating Curve= 0 ,0
XS HTab Starting El and Incr=2549.41,0.19, 20 
XS HTab Horizontal Distribution= 5 , 5 , 5 
Exp/Cntr=0.3,0.1

Type RM Length L Ch R = 1 ,9.6226* ,20,20,20
Node Last Edited Time=sept/16/2024 17:53:15
#Sta/Elev= 4 
       02553.243   6.0452549.243  20.4232549.243  26.4682553.243
#Mann= 2 ,0,0
       0    .015       0  26.468    .015       0
Bank Sta=0,26.468
XS Rating Curve= 0 ,0
XS HTab Starting El and Incr=2549.4,0.19, 20 
XS HTab Horizontal Distribution= 5 , 5 , 5 
Exp/Cntr=0.3,0.1

Type RM Length L Ch R = 1 ,9.5534* ,20,20,20
Node Last Edited Time=sept/16/2024 17:53:15
#Sta/Elev= 4 
       02553.233   5.9072549.233  20.3542549.233  26.2612553.233
#Mann= 2 ,0,0
       0    .015       0  26.261    .015       0
Bank Sta=0,26.261
XS Rating Curve= 0 ,0
XS HTab Starting El and Incr=2549.39,0.19, 20 
XS HTab Horizontal Distribution= 5 , 5 , 5 
Exp/Cntr=0.3,0.1

Type RM Length L Ch R = 1 ,9.4843* ,20,20,20
Node Last Edited Time=sept/16/2024 17:53:15
#Sta/Elev= 4 