Flow Title=Flow 01
Program Version=6.50
Number of Profiles= 1 
Profile Names=caudalmedio
River Rch & RM=Bogota,tramo1          ,2       
      25
Boundary for River Rch & Prof#=Bogota,tramo1          , 1 
Up Type= 0 
Dn Type= 2 
DSS Import StartDate=
DSS Import StartTime=
DSS Import EndDate=
DSS Import EndTime=
DSS Import GetInterval= 0 
DSS Import Interval=
DSS Import GetPeak= 0 
DSS Import FillOption= 0 
